data_block_1
_audit_creation_date         'Sun May 30 11:11:40 2021'
_audit_creation_method       'generated by GDIS v0.90'


_cell_length_a              8.7876
_cell_length_b              8.7876
_cell_length_c             12.6575
_cell_angle_alpha          90.00
_cell_angle_beta           90.00
_cell_angle_gamma          90.00


_symmetry_space_group_name_H-M   'P 1'
_symmetry_Int_Tables_number       1


loop_
_atom_site_label
_atom_site_fract_x
_atom_site_fract_y
_atom_site_fract_z
Li    0.2287    0.2730    0.2946
Li    0.7713    0.7270    0.2946
Li    0.2730    0.7713    0.7946
Li    0.7270    0.2287    0.7946
Li    0.2287    0.7270    0.2946
Li    0.7713    0.2730    0.2946
Li    0.2730    0.2287    0.7946
Li    0.7270    0.7713    0.7946
Li    0.0000    0.0000    0.9397
Li    0.0000    0.0000    0.4397
Li    0.5000    0.5000    0.5480
Li    0.5000    0.5000    0.0480
Li    0.2563    0.7248    0.0367
Li    0.7437    0.2752    0.0367
Li    0.2752    0.2563    0.5367
Li    0.7248    0.7437    0.5367
Li    0.2752    0.7437    0.5367
Li    0.7248    0.2563    0.5367
Li    0.2563    0.2752    0.0367
Li    0.7437    0.7248    0.0367
Ge    0.5000    0.5000    0.8010
Ge    0.5000    0.5000    0.3010
 P    1.0000    0.0000    0.6861
 P    0.0000    1.0000    0.1861
 P    1.0000    0.5000    0.5041
 P    0.5000    1.0000    0.0041
 S    1.0000    0.6944    0.4121
 S    1.0000    0.3056    0.4121
 S    0.3056    1.0000   -0.0879
 S    0.6944    1.0000   -0.0879
 S    0.5000    1.1898    0.0971
 S    0.5000    0.8102    0.0971
 S    1.1898    0.5000    0.5971
 S    0.8102    0.5000    0.5971
 S    0.0000    0.8047    0.0941
 S    0.0000    1.1953    0.0941
 S    1.1953    0.0000    0.5941
 S    0.8047    0.0000    0.5941
 S    0.5000    0.2900    0.4032
 S    0.5000    0.7100    0.4032
 S    0.2900    0.5000    0.9032
 S    0.7100    0.5000    0.9032
 S    1.0000    0.1920    0.7771
 S    1.0000   -0.1919    0.7771
 S   -0.1919    1.0000    0.2771
 S    0.1920    1.0000    0.2771
 S    0.5000    0.7074    0.6982
 S    0.5000    0.2926    0.6982
 S    0.7074    0.5000    0.1982
 S    0.2926    0.5000    0.1982

